 .Sol file Watershed HRU:435 Subbasin:29 HRU:4 Luse:BERM Soil: XAFERRIT Slope: 0-5 11/2/2020 12:00:00 AM ArcSWAT 2012.10_5.21
 Soil Name: XAFERRIT
 Soil Hydrologic Group: B
 Maximum rooting depth(mm) :  420.00
 Porosity fraction from which anions are excluded: 0.500
 Crack volume potential of soil: 0.500
 Texture 1                : STV-FSL-FSL-SL
 Depth                [mm]:      300.00     1000.00
 Bulk Density Moist [g/cc]:        1.30        1.30
 Ave. AW Incl. Rock Frag  :        0.07        0.07
 Ksat. (est.)      [mm/hr]:       18.00       18.00
 Organic Carbon [weight %]:        2.20        2.20
 Clay           [weight %]:       15.73       15.73
 Silt           [weight %]:       21.48       21.48
 Sand           [weight %]:       62.79       62.79
 Rock Fragments   [vol. %]:        0.00        0.00
 Soil Albedo (Moist)      :        0.01        0.01
 Erosion K                :        0.02        0.02
 Salinity (EC, Form 5)    :        0.00        0.00
 Soil pH                  :        0.00        0.00
 Soil CACO3               :        0.00        0.00
                              
