 .Sol file Watershed HRU:693 Subbasin:42 HRU:10 Luse:FRSE Soil: MUNALIT Slope: 5-9999 11/2/2020 12:00:00 AM ArcSWAT 2012.10_5.21
 Soil Name: MUNALIT
 Soil Hydrologic Group: D
 Maximum rooting depth(mm) :  420.00
 Porosity fraction from which anions are excluded: 0.500
 Crack volume potential of soil: 0.500
 Texture 1                : STV-FSL-FSL-SL
 Depth                [mm]:      300.00     1000.00
 Bulk Density Moist [g/cc]:        1.30        1.30
 Ave. AW Incl. Rock Frag  :        0.07        0.07
 Ksat. (est.)      [mm/hr]:       25.00       25.00
 Organic Carbon [weight %]:        2.20        2.20
 Clay           [weight %]:       25.00       25.00
 Silt           [weight %]:       57.00       57.00
 Sand           [weight %]:       18.00       18.00
 Rock Fragments   [vol. %]:        0.00        0.00
 Soil Albedo (Moist)      :        0.01        0.01
 Erosion K                :        0.02        0.02
 Salinity (EC, Form 5)    :        0.00        0.00
 Soil pH                  :        0.00        0.00
 Soil CACO3               :        0.00        0.00
                              
